16
Coordinates from ORCA-job cubane E -308.968561332579
  H       2.061000     -1.291000      0.025000
  C       1.072000     -0.813000     -0.052000
  H       2.061000      1.290000      0.025000
  C       1.072000      0.812000     -0.052000
  H       0.000000     -1.576000     -2.039000
  C       0.000000     -1.328000     -0.972000
  H       0.000000      1.576000     -2.039000
  C       0.000000      1.328000     -0.972000
  H       0.000000     -1.447000      1.963000
  C       0.000000     -0.772000      1.096000
  H       0.000000      1.447000      1.963000
  C       0.000000      0.772000      1.096000
  H      -2.061002     -1.291000      0.018000
  C      -1.072000     -0.813000     -0.053000
  H      -2.061000      1.290000      0.018000
  C      -1.072000      0.812000     -0.053000
16
Coordinates from ORCA-job cubane E -308.968563253520
  H       2.060494     -1.291186      0.026568
  C       1.072106     -0.813160     -0.051535
  H       2.060577      1.290342      0.022466
  C       1.072005      0.812268     -0.052695
  H       0.001342     -1.576045     -2.039163
  C       0.000783     -1.328420     -0.971950
  H      -0.000597      1.576379     -2.039063
  C      -0.000151      1.328127     -0.972027
  H      -0.000980     -1.447706      1.962683
  C      -0.000680     -0.772590      1.096527
  H       0.000524      1.446796      1.963037
  C       0.000101      0.772079      1.096614
  H      -2.060817     -1.291160      0.017577
  C      -1.071984     -0.813012     -0.053551
  H      -2.060718      1.290795      0.019299
  C      -1.072007      0.812493     -0.052786
16
Coordinates from ORCA-job cubane E -308.968562446239
  H       2.060159     -1.291710      0.028235
  C       1.072132     -0.813319     -0.051148
  H       2.060534      1.290580      0.020193
  C       1.072059      0.812231     -0.053009
  H       0.002013     -1.574039     -2.039855
  C       0.001226     -1.328127     -0.972161
  H      -0.000752      1.575515     -2.039232
  C      -0.000118      1.327569     -0.972086
  H      -0.001334     -1.448390      1.962639
  C      -0.001048     -0.772926      1.096984
  H       0.000499      1.447061      1.963161
  C      -0.000119      0.772182      1.097054
  H      -2.060581     -1.291473      0.017679
  C      -1.071948     -0.812985     -0.053838
  H      -2.060623      1.291183      0.020214
  C      -1.072103      0.812648     -0.052833
16
Coordinates from ORCA-job cubane E -308.968563990824
  H       2.060205     -1.291734      0.027698
  C       1.072109     -0.813320     -0.051412
  H       2.060636      1.290631      0.020227
  C       1.072112      0.812202     -0.052816
  H       0.001686     -1.574597     -2.039579
  C       0.001068     -1.328489     -0.972009
  H      -0.000210      1.576284     -2.038828
  C       0.000138      1.327748     -0.971874
  H      -0.001062     -1.448414      1.962572
  C      -0.000928     -0.772878      1.096895
  H      -0.000033      1.447262      1.963035
  C      -0.000402      0.772219      1.096962
  H      -2.060570     -1.291532      0.018111
  C      -1.071969     -0.813009     -0.053824
  H      -2.060660      1.291053      0.019991
  C      -1.072122      0.812573     -0.053148
