# ================================================================
# Orca input file for cubane B3LYP/def2-QZVP geometry optimization
# ================================================================
! DFT B3LYP def2-QZVP TightSCF TightOPT UseSym
! PAL4

* xyz 0 3
  H                     2.04751540    -1.28305698     0.01402688
  C                     1.07000028    -0.81258731    -0.05743553
  H                     2.04751540     1.28305698     0.01402688
  C                     1.07000028     0.81258731    -0.05743553
  H                     0.00000000    -1.61020134    -2.01435917
  C                     0.00000000    -1.32343256    -0.97118519
  H                     0.00000000     1.61020134    -2.01435917
  C                     0.00000000     1.32343256    -0.97118519
  H                     0.00000000    -1.43834592     1.94754313
  C                     0.00000000    -0.77028579     1.09274975
  H                     0.00000000     1.43834592     1.94754313
  C                     0.00000000     0.77028579     1.09274975
  H                    -2.04751540    -1.28305698     0.01402688
  C                    -1.07000028    -0.81258731    -0.05743553
  H                    -2.04751540     1.28305698     0.01402688
  C                    -1.07000028     0.81258731    -0.05743553
*
