# ================================================================
# Orca input file for cubane RI-MP2/cc-pVDZ geometry optimization
# ================================================================
! RHF RI-MP2 cc-pVDZ cc-pVDZ/C TightSCF TightOPT UseSym
! PAL4

* xyz 0 1
  H      -1.423     -1.423     -1.423
  C      -0.788     -0.788     -0.788
  H      -1.423     -1.423      1.423
  C      -0.788     -0.788      0.788
  H      -1.423      1.423     -1.423
  C      -0.788      0.788     -0.788
  H       1.423     -1.423     -1.423
  C       0.788     -0.788     -0.788
  H      -1.423      1.423      1.423
  C      -0.788      0.788      0.788
  H       1.423     -1.423      1.423
  C       0.788     -0.788      0.788
  H       1.423      1.423     -1.423
  C       0.788      0.788     -0.788
  H       1.423      1.423      1.423
  C       0.788      0.788      0.788
*
