# ================================================================
# Orca input file for cubane RI-MP2/cc-pVQZ geometry optimization
# ================================================================
! RHF RI-MP2 cc-pVQZ cc-pVQZ/C TightSCF TightOPT UseSym
! PAL4

* xyz 0 1
  H      -1.409     -1.409     -1.409
  C      -0.782     -0.782     -0.782
  H      -1.409     -1.409      1.409
  C      -0.782     -0.782      0.782
  H      -1.409      1.409     -1.409
  C      -0.782      0.782     -0.782
  H       1.409     -1.409     -1.409
  C       0.782     -0.782     -0.782
  H      -1.409      1.409      1.409
  C      -0.782      0.782      0.782
  H       1.409     -1.409      1.409
  C       0.782     -0.782      0.782
  H       1.409      1.409     -1.409
  C       0.782      0.782     -0.782
  H       1.409      1.409      1.409
  C       0.782      0.782      0.782
*
