# ================================================================
# Orca input file for cubane
# ================================================================
! DLPNO-CCSD(T) cc-pVTZ cc-pVTZ/C TightSCF TightOpt
! NumGrad
! PAL4

%maxcore 2000

* xyz 0 1
 H                     1.4154     1.4154     1.4154
 H                    -1.4154    -1.4154     1.4154
 H                    -1.4154     1.4154    -1.4154
 H                     1.4154    -1.4154    -1.4154
 H                    -1.4154    -1.4154    -1.4154
 H                     1.4154     1.4154    -1.4154
 H                     1.4154    -1.4154     1.4154
 H                    -1.4154     1.4154     1.4154
 C                     0.7874     0.7874     0.7874
 C                    -0.7874    -0.7874     0.7874
 C                    -0.7874     0.7874    -0.7874
 C                     0.7874    -0.7874    -0.7874
 C                    -0.7874    -0.7874    -0.7874
 C                     0.7874     0.7874    -0.7874
 C                     0.7874    -0.7874     0.7874
 C                    -0.7874     0.7874     0.7874
*
