# ================================================================
# Orca input file for cubane RI-MP2/cc-pVDZ geometry optimization
# ================================================================
! RI-MP2 cc-pVDZ cc-pVDZ/C TightSCF TightOPT UseSym
! PAL4

* xyz 0 3
  H                     2.06558205    -1.28286326     0.02211469
  C                     1.07464059    -0.80757103    -0.05079586
  H                     2.06558205     1.28286326     0.02211469
  C                     1.07464059     0.80757103    -0.05079586
  H                     0.00000000    -1.50306671    -2.05955799
  C                     0.00000000    -1.33057164    -0.97564719
  H                     0.00000000     1.50306671    -2.05955799
  C                     0.00000000     1.33057164    -0.97564719
  H                     0.00000000    -1.45938535     1.96899476
  C                     0.00000000    -0.77726259     1.10647220
  H                     0.00000000     1.45938535     1.96899476
  C                     0.00000000     0.77726259     1.10647220
  H                    -2.06558205    -1.28286326     0.02211469
  C                    -1.07464059    -0.80757103    -0.05079586
  H                    -2.06558205     1.28286326     0.02211469
  C                    -1.07464059     0.80757103    -0.05079586
*
