# ================================================================
# Orca input file for cubane
# ================================================================
! DLPNO-CCSD(T) cc-pVDZ cc-pVDZ/C TightSCF TightOpt
! NumGrad
! PAL4

%maxcore 2000

* xyz 0 1
 H                     1.42871342     1.42871342     1.42871342
 H                    -1.42871342    -1.42871342     1.42871342
 H                    -1.42871342     1.42871342    -1.42871342
 H                     1.42871342    -1.42871342    -1.42871342
 H                    -1.42871342    -1.42871342    -1.42871342
 H                     1.42871342     1.42871342    -1.42871342
 H                     1.42871342    -1.42871342     1.42871342
 H                    -1.42871342     1.42871342     1.42871342
 C                     0.79205620     0.79205620     0.79205620
 C                    -0.79205620    -0.79205620     0.79205620
 C                    -0.79205620     0.79205620    -0.79205620
 C                     0.79205620    -0.79205620    -0.79205620
 C                    -0.79205620    -0.79205620    -0.79205620
 C                     0.79205620     0.79205620    -0.79205620
 C                     0.79205620    -0.79205620     0.79205620
 C                    -0.79205620     0.79205620     0.79205620
*
